
Checking parameters for BSIM 4.8 model 130nm_pmos_w100
Warning: Rdswmin at current temperature = -0.00666333 is negative. Set to zero.
PPerror: syntax error in line segment
   ( 1.2==0 )
near
          0 )

Note: No compatibility mode selected!


Circuit: * ============================================================

Doing analysis at TEMP = 25.000000 and TNOM = 27.000000

Using SPARSE 1.3 as Direct Linear Solver

No. of Data Rows : 121
ngspice-45.2 done
